Version 4
SHEET 1 880 680
WIRE 160 -16 160 -32
WIRE 160 -16 -32 -16
WIRE -32 0 -32 -16
WIRE 160 64 160 -16
WIRE -32 112 -32 80
WIRE -32 112 -112 112
WIRE 48 112 -32 112
WIRE -112 128 -112 112
WIRE 48 160 16 160
WIRE 352 160 256 160
WIRE -112 208 -112 192
WIRE -32 208 -32 192
WIRE -32 208 -112 208
WIRE 16 208 16 160
WIRE 16 208 -32 208
WIRE 48 208 16 208
WIRE 320 208 256 208
WIRE -32 240 -32 208
WIRE 320 240 320 208
FLAG 160 -112 0
FLAG 320 304 0
FLAG -32 304 0
SYMBOL voltage 160 -16 R180
WINDOW 0 24 96 Left 2
WINDOW 3 24 16 Left 2
SYMATTR InstName V1
SYMATTR Value 5
SYMBOL cap 304 240 R0
SYMATTR InstName C1
SYMATTR Value 10n
SYMBOL 555 128 144 R0
SYMATTR InstName X1
SYMBOL res -48 -16 R0
SYMATTR InstName R1
SYMATTR Value 1k
SYMBOL res -48 96 R0
SYMATTR InstName R2
SYMATTR Value 1k
SYMBOL cap -48 240 R0
SYMATTR InstName C2
SYMATTR Value 360µ
SYMBOL diode -128 128 R0
SYMATTR InstName D1
SYMATTR Value 1N914
TEXT -184 400 Left 2 !.tran 6s
