Version 4
SHEET 1 880 680
WIRE 160 -16 160 -32
WIRE 160 -16 -32 -16
WIRE -32 0 -32 -16
WIRE 160 64 160 -16
WIRE -32 112 -32 80
WIRE 48 112 -32 112
WIRE -32 160 -32 112
WIRE 48 160 -32 160
WIRE 352 160 256 160
WIRE 48 208 -176 208
WIRE 320 208 256 208
WIRE -176 224 -176 208
WIRE -32 224 -32 160
WIRE 320 240 320 208
FLAG 160 -112 0
FLAG 320 304 0
FLAG -32 288 0
FLAG -176 304 0
SYMBOL voltage 160 -16 R180
WINDOW 0 24 96 Left 2
WINDOW 3 24 16 Left 2
SYMATTR InstName V1
SYMATTR Value 5
SYMBOL cap 304 240 R0
SYMATTR InstName C1
SYMATTR Value 10n
SYMBOL res -48 -16 R0
SYMATTR InstName R1
SYMATTR Value 1k
SYMBOL cap -48 224 R0
SYMATTR InstName C2
SYMATTR Value 360µ
SYMBOL voltage -176 208 R0
WINDOW 123 0 0 Left 0
WINDOW 39 0 0 Left 0
SYMATTR InstName V2
SYMATTR Value PULSE(5 0 250m 1n 1n 20m 2s 1)
SYMBOL 555 128 144 R0
SYMATTR InstName X1
TEXT -184 400 Left 2 !.tran 1s
