Version 4
SHEET 1 1192 680
WIRE -32 -128 -32 -176
WIRE -32 -16 -32 -48
WIRE 80 -16 -32 -16
WIRE 192 0 144 0
WIRE 80 16 -160 16
WIRE -32 64 -32 -16
WIRE 240 80 208 80
WIRE 368 80 336 80
WIRE 192 128 192 0
WIRE 240 128 192 128
WIRE 80 192 -160 192
WIRE 208 208 208 80
WIRE 208 208 144 208
WIRE -32 224 -32 144
WIRE 80 224 -32 224
WIRE 112 272 -160 272
WIRE -32 304 -32 224
WIRE 112 304 112 272
WIRE 352 352 352 128
WIRE 352 352 176 352
WIRE -32 432 -32 384
WIRE 112 432 112 400
WIRE 112 432 -32 432
FLAG -32 -16 CONT
FLAG 368 80 OUT
FLAG -32 -176 Vcc
FLAG -160 16 THRESH
FLAG -160 192 TRIG
FLAG -160 272 DISCH
FLAG -32 432 0
FLAG 240 160 0
SYMBOL Digital\\srflop 288 32 R0
WINDOW 3 -61 -38 Left 2
SYMATTR InstName A1
SYMATTR Value Vhigh=5v
SYMBOL res -48 -144 R0
SYMATTR InstName R1
SYMATTR Value 5k
SYMBOL res -48 48 R0
SYMATTR InstName R2
SYMATTR Value 5k
SYMBOL res -48 288 R0
SYMATTR InstName R3
SYMATTR Value 5k
SYMBOL npn 176 304 M0
SYMATTR InstName Q1
SYMBOL OpAmps\\opamp 112 144 R0
SYMATTR InstName U1
SYMBOL OpAmps\\opamp 112 -64 R0
SYMATTR InstName U2
TEXT -112 480 Left 2 !.lib opamp.sub
